HEA
     RDKit          3D

116123  0  0  0  0  0  0  0  0999 V2000
   -3.7470    0.2130    0.3620 Fe  0  0  0  0  0  4  0  0  0  0  0  0
   -7.1300    0.6090    0.2570 C   0  0  0  0  0  0  0  0  0  0  0  0
   -3.4210    3.3700    1.6180 C   0  0  0  0  0  0  0  0  0  0  0  0
   -0.4420   -0.3340    0.9100 C   0  0  0  0  0  0  0  0  0  0  0  0
   -4.1190   -3.0200   -0.6660 C   0  0  0  0  0  0  0  0  0  0  0  0
   -5.0770    1.7260    0.8890 N   0  0  0  0  0  3  0  0  0  0  0  0
   -6.4200    1.7370    0.6750 C   0  0  0  0  0  0  0  0  0  0  0  0
   -6.9360    3.0020    0.9100 C   0  0  0  0  0  0  0  0  0  0  0  0
   -5.8640    3.8380    1.3130 C   0  0  0  0  0  0  0  0  0  0  0  0
   -4.7410    3.0140    1.2910 C   0  0  0  0  0  0  0  0  0  0  0  0
   -5.9920    5.2480    1.6480 C   0  0  0  0  0  0  0  0  0  0  0  0
   -5.1080    5.9810    2.0380 O   0  0  0  0  0  0  0  0  0  0  0  0
   -8.3730    3.4220    0.7610 C   0  0  0  0  0  0  0  0  0  0  0  0
   -8.7200    3.9050   -0.6440 C   0  0  0  0  0  0  0  0  0  0  0  0
  -10.1620    4.3730   -0.8190 C   0  0  0  0  0  0  0  0  0  0  0  0
  -11.0130    3.5290   -1.1700 O   0  0  0  0  0  0  0  0  0  0  0  0
  -10.4180    5.5760   -0.6020 O   0  0  0  0  0  0  0  0  0  0  0  0
   -2.1750    1.3440    1.1450 N   0  0  0  0  0  4  0  0  0  0  0  0
   -2.2460    2.6150    1.6320 C   0  0  0  0  0  0  0  0  0  0  0  0
   -1.0290    2.9830    2.1540 C   0  0  0  0  0  0  0  0  0  0  0  0
   -0.1530    1.9320    1.9610 C   0  0  0  0  0  0  0  0  0  0  0  0
   -0.8900    0.9270    1.3170 C   0  0  0  0  0  0  0  0  0  0  0  0
   -0.6710    4.2970    2.8040 C   0  0  0  0  0  0  0  0  0  0  0  0
   -2.4770   -1.4320    0.1860 N   0  0  0  0  0  3  0  0  0  0  0  0
   -1.1330   -1.4290    0.3810 C   0  0  0  0  0  0  0  0  0  0  0  0
   -0.5890   -2.6440   -0.0350 C   0  0  0  0  0  0  0  0  0  0  0  0
   -1.6440   -3.4650   -0.4880 C   0  0  0  0  0  0  0  0  0  0  0  0
   -2.7900   -2.6810   -0.3500 C   0  0  0  0  0  0  0  0  0  0  0  0
    0.8590   -3.0540    0.0050 C   0  0  0  0  0  0  0  0  0  0  0  0
   -1.4390   -4.8420   -1.0330 C   0  0  0  0  0  0  0  0  0  0  0  0
   -2.2450   -5.8340   -1.3330 C   0  0  0  0  0  0  0  0  0  0  0  0
   -5.3610   -1.0070   -0.1230 N   0  0  0  0  0  4  0  0  0  0  0  0
   -5.3130   -2.3120   -0.5060 C   0  0  0  0  0  0  0  0  0  0  0  0
   -6.5890   -2.7980   -0.6620 C   0  0  0  0  0  0  0  0  0  0  0  0
   -7.4520   -1.7710   -0.4070 C   0  0  0  0  0  0  0  0  0  0  0  0
   -6.6800   -0.6690   -0.0840 C   0  0  0  0  0  0  0  0  0  0  0  0
   -6.9820   -4.1980   -1.0600 C   0  0  0  0  0  0  0  0  0  0  0  0
   -8.9590   -1.8350   -0.4650 C   0  0  0  0  0  0  0  0  0  0  0  0
   -9.6350   -2.2730    0.8320 C   0  0  0  0  0  0  0  0  0  0  0  0
   -9.5570   -1.2660    1.9770 C   0  0  0  0  0  0  0  0  0  0  0  0
  -10.4050   -0.3500    2.0110 O   0  0  0  0  0  0  0  0  0  0  0  0
   -8.6480   -1.4100    2.8210 O   0  0  0  0  0  0  0  0  0  0  0  0
    1.3110    1.9060    2.3670 C   0  0  0  0  0  0  0  0  0  0  0  0
    1.5890    0.6770    3.0610 O   0  0  0  0  0  0  0  0  0  0  0  0
    2.2480    2.1260    1.1600 C   0  0  0  0  0  0  0  0  0  0  0  0
    3.6450    2.6680    1.4960 C   0  0  0  0  0  0  0  0  0  0  0  0
    4.5640    2.8600    0.3170 C   0  0  0  0  0  0  0  0  0  0  0  0
    5.9070    2.9390    0.2580 C   0  0  0  0  0  0  0  0  0  0  0  0
    6.6060    3.0650   -1.0850 C   0  0  0  0  0  0  0  0  0  0  0  0
    6.6290    1.7900   -1.9510 C   0  0  0  0  0  0  0  0  0  0  0  0
    7.4660    0.6710   -1.3810 C   0  0  0  0  0  0  0  0  0  0  0  0
    8.7900    0.4330   -1.4440 C   0  0  0  0  0  0  0  0  0  0  0  0
    9.3800   -0.7650   -0.7210 C   0  0  0  0  0  0  0  0  0  0  0  0
    9.3270   -2.0880   -1.5110 C   0  0  0  0  0  0  0  0  0  0  0  0
    9.7630   -3.3070   -0.7310 C   0  0  0  0  0  0  0  0  0  0  0  0
    9.6960   -4.6080   -1.0360 C   0  0  0  0  0  0  0  0  0  0  0  0
    9.1570   -5.1980   -2.3350 C   0  0  0  0  0  0  0  0  0  0  0  0
   10.1740   -5.6680   -0.0530 C   0  0  0  0  0  0  0  0  0  0  0  0
    6.8420    2.9430    1.4510 C   0  0  0  0  0  0  0  0  0  0  0  0
    9.8030    1.2710   -2.1970 C   0  0  0  0  0  0  0  0  0  0  0  0
   -8.0660    0.7270    0.1930 H   0  0  0  0  0  0  0  0  0  0  0  0
   -3.3130    4.2840    1.8300 H   0  0  0  0  0  0  0  0  0  0  0  0
    0.4940   -0.4460    0.9770 H   0  0  0  0  0  0  0  0  0  0  0  0
   -4.2090   -3.8470   -1.1110 H   0  0  0  0  0  0  0  0  0  0  0  0
   -6.8400    5.6410    1.5410 H   0  0  0  0  0  0  0  0  0  0  0  0
   -8.5780    4.1390    1.4000 H   0  0  0  0  0  0  0  0  0  0  0  0
   -8.9630    2.6730    0.9930 H   0  0  0  0  0  0  0  0  0  0  0  0
   -8.5500    3.1720   -1.2810 H   0  0  0  0  0  0  0  0  0  0  0  0
   -8.1190    4.6480   -0.8810 H   0  0  0  0  0  0  0  0  0  0  0  0
   -7.8810    2.3770    6.3680 H   0  0  0  0  0  0  0  0  0  0  0  0
   -0.2010    4.1360    3.6380 H   0  0  0  0  0  0  0  0  0  0  0  0
   -1.4700    4.8100    2.9970 H   0  0  0  0  0  0  0  0  0  0  0  0
   -0.1000    4.8080    2.2080 H   0  0  0  0  0  0  0  0  0  0  0  0
    0.9320   -3.9860    0.2640 H   0  0  0  0  0  0  0  0  0  0  0  0
    1.3440   -2.5170    0.6510 H   0  0  0  0  0  0  0  0  0  0  0  0
    1.2550   -2.9340   -0.8730 H   0  0  0  0  0  0  0  0  0  0  0  0
   -0.5450   -5.0650   -1.2410 H   0  0  0  0  0  0  0  0  0  0  0  0
   -1.8950   -6.6200   -1.7180 H   0  0  0  0  0  0  0  0  0  0  0  0
   -3.1640   -5.7800   -1.1340 H   0  0  0  0  0  0  0  0  0  0  0  0
   -7.8160   -4.4460   -0.6310 H   0  0  0  0  0  0  0  0  0  0  0  0
   -6.2970   -4.8280   -0.7860 H   0  0  0  0  0  0  0  0  0  0  0  0
   -7.0920   -4.2430   -2.0240 H   0  0  0  0  0  0  0  0  0  0  0  0
   -9.2340   -2.4470   -1.1820 H   0  0  0  0  0  0  0  0  0  0  0  0
   -9.3140   -0.9550   -0.7180 H   0  0  0  0  0  0  0  0  0  0  0  0
   -9.2250   -3.1170    1.1310 H   0  0  0  0  0  0  0  0  0  0  0  0
  -10.5840   -2.4570    0.6450 H   0  0  0  0  0  0  0  0  0  0  0  0
   -8.5600    5.9980    1.1780 H   0  0  0  0  0  0  0  0  0  0  0  0
    1.4850    2.6450    3.0080 H   0  0  0  0  0  0  0  0  0  0  0  0
    2.3300    0.7320    3.4840 H   0  0  0  0  0  0  0  0  0  0  0  0
    1.8170    2.7480    0.5370 H   0  0  0  0  0  0  0  0  0  0  0  0
    2.3520    1.2730    0.6880 H   0  0  0  0  0  0  0  0  0  0  0  0
    4.0690    2.0550    2.1340 H   0  0  0  0  0  0  0  0  0  0  0  0
    3.5440    3.5270    1.9600 H   0  0  0  0  0  0  0  0  0  0  0  0
    4.1080    2.9520   -0.5150 H   0  0  0  0  0  0  0  0  0  0  0  0
    7.5310    3.3540   -0.9410 H   0  0  0  0  0  0  0  0  0  0  0  0
    6.1620    3.7730   -1.5960 H   0  0  0  0  0  0  0  0  0  0  0  0
    6.9560    2.0170   -2.8440 H   0  0  0  0  0  0  0  0  0  0  0  0
    5.7120    1.4700   -2.0680 H   0  0  0  0  0  0  0  0  0  0  0  0
    6.9500    0.0330   -0.8990 H   0  0  0  0  0  0  0  0  0  0  0  0
    8.8990   -0.8890    0.1230 H   0  0  0  0  0  0  0  0  0  0  0  0
   10.3150   -0.5760   -0.4940 H   0  0  0  0  0  0  0  0  0  0  0  0
    9.8900   -2.0040   -2.3060 H   0  0  0  0  0  0  0  0  0  0  0  0
    8.4130   -2.2270   -1.8300 H   0  0  0  0  0  0  0  0  0  0  0  0
   10.1560   -3.0980    0.1120 H   0  0  0  0  0  0  0  0  0  0  0  0
    8.8780   -4.4950   -2.9380 H   0  0  0  0  0  0  0  0  0  0  0  0
    8.3950   -5.7680   -2.1450 H   0  0  0  0  0  0  0  0  0  0  0  0
    9.8480   -5.7240   -2.7680 H   0  0  0  0  0  0  0  0  0  0  0  0
   10.4990   -5.2530    0.7610 H   0  0  0  0  0  0  0  0  0  0  0  0
   10.8940   -6.1830   -0.4500 H   0  0  0  0  0  0  0  0  0  0  0  0
    9.4410   -6.2640    0.1700 H   0  0  0  0  0  0  0  0  0  0  0  0
    6.3420    2.9110    2.2780 H   0  0  0  0  0  0  0  0  0  0  0  0
    7.3790    3.7510    1.4420 H   0  0  0  0  0  0  0  0  0  0  0  0
    7.4280    2.1720    1.4070 H   0  0  0  0  0  0  0  0  0  0  0  0
    9.3700    2.0110   -2.6430 H   0  0  0  0  0  0  0  0  0  0  0  0
   10.2500    0.7230   -2.8610 H   0  0  0  0  0  0  0  0  0  0  0  0
   10.4620    1.6200   -1.5770 H   0  0  0  0  0  0  0  0  0  0  0  0
  1  6  1  0
  1 18  1  0
  1 24  1  0
  1 32  1  0
  2  7  2  0
  2 36  1  0
  2 61  1  0
  3 10  2  0
  3 19  1  0
  3 62  1  0
  4 22  2  0
  4 25  1  0
  4 63  1  0
  5 28  1  0
  5 33  2  0
  5 64  1  0
  6  7  1  0
  6 10  1  0
  7  8  1  0
  8  9  2  0
  8 13  1  0
  9 10  1  0
  9 11  1  0
 11 12  2  0
 11 65  1  0
 13 14  1  0
 13 66  1  0
 13 67  1  0
 14 15  1  0
 14 68  1  0
 14 69  1  0
 15 16  2  0
 15 17  1  0
 17 70  1  0
 18 19  2  0
 18 22  1  0
 19 20  1  0
 20 21  2  0
 20 23  1  0
 21 22  1  0
 21 43  1  0
 23 71  1  0
 23 72  1  0
 23 73  1  0
 24 25  1  0
 24 28  1  0
 25 26  2  0
 26 27  1  0
 26 29  1  0
 27 28  2  0
 27 30  1  0
 29 74  1  0
 29 75  1  0
 29 76  1  0
 30 31  2  0
 30 77  1  0
 31 78  1  0
 31 79  1  0
 32 33  1  0
 32 36  2  0
 33 34  1  0
 34 35  2  0
 34 37  1  0
 35 36  1  0
 35 38  1  0
 37 80  1  0
 37 81  1  0
 37 82  1  0
 38 39  1  0
 38 83  1  0
 38 84  1  0
 39 40  1  0
 39 85  1  0
 39 86  1  0
 40 41  2  0
 40 42  1  0
 42 87  1  0
 43 44  1  0
 43 45  1  0
 43 88  1  0
 44 89  1  0
 45 46  1  0
 45 90  1  0
 45 91  1  0
 46 47  1  0
 46 92  1  0
 46 93  1  0
 47 48  2  3
 47 94  1  0
 48 49  1  0
 48 59  1  0
 49 50  1  0
 49 95  1  0
 49 96  1  0
 50 51  1  0
 50 97  1  0
 50 98  1  0
 51 52  2  3
 51 99  1  0
 52 53  1  0
 52 60  1  0
 53 54  1  0
 53100  1  0
 53101  1  0
 54 55  1  0
 54102  1  0
 54103  1  0
 55 56  2  3
 55104  1  0
 56 57  1  0
 56 58  1  0
 57105  1  0
 57106  1  0
 57107  1  0
 58108  1  0
 58109  1  0
 58110  1  0
 59111  1  0
 59112  1  0
 59113  1  0
 60114  1  0
 60115  1  0
 60116  1  0
M  CHG  4   6  -1  17  -1  24  -1  42  -1
M  END
$$$$
